Circuit: * C:\Users\lucas\Documents\Engenharia Elétrica\UFSJ\Eletrônica 2\bode\p2e1.asc

Direct Newton iteration for .op point succeeded.

Date: Thu Jun 01 20:16:57 2023
Total elapsed time: 0.040 seconds.

tnom = 27
temp = 27
method = trap
totiter = 36
traniter = 0
tranpoints = 0
accept = 0
rejected = 0
matrix size = 31
fillins = 46
solver = Normal
Matrix Compiler1:     210 opcodes
Matrix Compiler2:     250 opcodes
