Circuit: * C:\Users\lucas\Documents\Engenharia Elétrica\UFSJ\Circuitos 2\passaalta.asc

.OP point found by inspection.

Date: Wed Sep 21 02:15:57 2022
Total elapsed time: 0.174 seconds.

tnom = 27
temp = 27
method = modified trap
totiter = 21426
traniter = 21426
tranpoints = 10714
accept = 7360
rejected = 3354
matrix size = 12
fillins = 0
solver = Normal
Matrix Compiler1: 374 bytes object code size  0.2/0.1/[0.1]
Matrix Compiler2: 640 bytes object code size  0.1/0.2/[0.1]

